dss/import/elor/Line_Caso_Base.dss
New "Line.40024" phases=3 bus1=61482.1.2.3 bus2=114.1.2.3 spacing=T10_0kV_3ph wires=(CU16mm2, CU16mm2, CU16mm2) length=0.034602 units=km normamps=115 
New "Line.40025" phases=3 bus1=61512.1.2.3 bus2=61511.1.2.3 spacing=T10_0kV_3ph wires=(CU16mm2, CU16mm2, CU16mm2) length=0.041033 units=km normamps=115 
New "Line.40026" phases=3 bus1=61517.1.2.3 bus2=116.1.2.3 spacing=T10_0kV_3ph wires=(CU16mm2, CU16mm2, CU16mm2) length=0.131786 units=km normamps=115 
New "Line.40027" phases=3 bus1=61327.1.2.3 bus2=113.1.2.3 spacing=T10_0kV_3ph wires=(CU10mm2, CU10mm2, CU10mm2) length=0.031955 units=km normamps=83 
New "Line.40029" phases=3 bus1=119.1.2.3 bus2=61357.1.2.3 spacing=T10_0kV_3ph wires=(CU16mm2, CU16mm2, CU16mm2) length=0.044107 units=km normamps=115 
New "Line.40030" phases=1 bus1=61552.1 bus2=61359.1 spacing=T10_0kV_1ph wires=(AL25mm2) length=0.02706 units=km normamps=117 
New "Line.40032" phases=3 bus1=61360.1.2.3 bus2=61556.1.2.3 spacing=T10_0kV_3ph wires=(AL25mm2, AL25mm2, AL25mm2) length=0.151812 units=km normamps=117 
New "Line.40033" phases=3 bus1=61556.1.2.3 bus2=121.1.2.3 spacing=T10_0kV_3ph wires=(AL25mm2, AL25mm2, AL25mm2) length=0.071052 units=km normamps=117 
New "Line.40034" phases=3 bus1=121.1.2.3 bus2=122.1.2.3 spacing=T10_0kV_3ph wires=(AL25mm2, AL25mm2, AL25mm2) length=0.122948 units=km normamps=117 
New "Line.40035" phases=3 bus1=123.1.2.3 bus2=124.1.2.3 spacing=T10_0kV_3ph wires=(AL25mm2, AL25mm2, AL25mm2) length=0.116894 units=km normamps=117 
New "Line.40036" phases=3 bus1=61373.1.2.3 bus2=125.1.2.3 spacing=T10_0kV_3ph wires=(AL25mm2, AL25mm2, AL25mm2) length=0.079301 units=km normamps=117 
New "Line.40037" phases=3 bus1=61374.1.2.3 bus2=61373.1.2.3 spacing=T10_0kV_3ph wires=(CU16mm2, CU16mm2, CU16mm2) length=0.054947 units=km normamps=115 
New "Line.40186" phases=3 bus1=289.1.2.3 bus2=60501.1.2.3 spacing=T10_0kV_3ph wires=(AL50mm2, AL50mm2, AL50mm2) length=0.02494 units=km normamps=171 
New "Line.40187" phases=3 bus1=60976.1.2.3 bus2=61430.1.2.3 spacing=T10_0kV_3ph wires=(AL35mm2, AL35mm2, AL35mm2) length=0.095774 units=km normamps=141 
New "Line.40335" phases=3 bus1=61470.1.2.3 bus2=61471.1.2.3 spacing=T10_0kV_3ph wires=(AL25mm2, AL25mm2, AL25mm2) length=0.044563 units=km normamps=117 
New "Line.40336" phases=3 bus1=61471.1.2.3 bus2=61472.1.2.3 spacing=T10_0kV_3ph wires=(AL25mm2, AL25mm2, AL25mm2) length=0.068091 units=km normamps=117 
New "Line.40337" phases=3 bus1=61472.1.2.3 bus2=127.1.2.3 spacing=T10_0kV_3ph wires=(AL25mm2, AL25mm2, AL25mm2) length=0.055304 units=km normamps=117 
New "Line.40338" phases=3 bus1=60681.1.2.3 bus2=60678.1.2.3 spacing=T10_0kV_3ph wires=(CU16mm2, CU16mm2, CU16mm2) length=0.030004 units=km normamps=115 
New "Line.40340" phases=3 bus1=60679.1.2.3 bus2=60641.1.2.3 spacing=T10_0kV_3ph wires=(CU16mm2, CU16mm2, CU16mm2) length=0.055806 units=km normamps=115 
New "Line.40341" phases=3 bus1=62129.1.2.3 bus2=61415.1.2.3 spacing=T10_0kV_3ph wires=(CU16mm2, CU16mm2, CU16mm2) length=0.053204 units=km normamps=115 
New "Line.40342" phases=3 bus1=61416.1.2.3 bus2=61417.1.2.3 spacing=T10_0kV_3ph wires=(CU16mm2, CU16mm2, CU16mm2) length=0.046196 units=km normamps=115 
New "Line.40343" phases=3 bus1=61419.1.2.3 bus2=61420.1.2.3 spacing=T10_0kV_3ph wires=(CU16mm2, CU16mm2, CU16mm2) length=0.105014 units=km normamps=115 
New "Line.40344" phases=3 bus1=323.1.2.3 bus2=61421.1.2.3 spacing=T10_0kV_3ph wires=(CU16mm2, CU16mm2, CU16mm2) length=0.090649 units=km normamps=115 
New "Line.40345" phases=3 bus1=61421.1.2.3 bus2=61422.1.2.3 spacing=T10_0kV_3ph wires=(CU16mm2, CU16mm2, CU16mm2) length=0.122152 units=km normamps=115 
New "Line.40346" phases=3 bus1=61422.1.2.3 bus2=61423.1.2.3 spacing=T10_0kV_3ph wires=(CU16mm2, CU16mm2, CU16mm2) length=0.107501 units=km normamps=115 
New "Line.40347" phases=3 bus1=61423.1.2.3 bus2=61424.1.2.3 spacing=T10_0kV_3ph wires=(CU16mm2, CU16mm2, CU16mm2) length=0.100324 units=km normamps=115 
New "Line.40348" phases=3 bus1=61424.1.2.3 bus2=61425.1.2.3 spacing=T10_0kV_3ph wires=(CU16mm2, CU16mm2, CU16mm2) length=0.079165 units=km normamps=115 
New "Line.40349" phases=3 bus1=61425.1.2.3 bus2=68088.1.2.3 spacing=T10_0kV_3ph wires=(CU16mm2, CU16mm2, CU16mm2) length=0.106006 units=km normamps=115 
New "Line.40350" phases=3 bus1=61426.1.2.3 bus2=61427.1.2.3 spacing=T10_0kV_3ph wires=(CU16mm2, CU16mm2, CU16mm2) length=0.081989 units=km normamps=115 
New "Line.40351" phases=3 bus1=61427.1.2.3 bus2=61428.1.2.3 spacing=T10_0kV_3ph wires=(CU16mm2, CU16mm2, CU16mm2) length=0.069615 units=km normamps=115 
New "Line.40352" phases=3 bus1=61428.1.2.3 bus2=61429.1.2.3 spacing=T10_0kV_3ph wires=(CU16mm2, CU16mm2, CU16mm2) length=0.095106 units=km normamps=115 
New "Line.40353" phases=3 bus1=61430.1.2.3 bus2=61431.1.2.3 spacing=T10_0kV_3ph wires=(CU16mm2, CU16mm2, CU16mm2) length=0.107071 units=km normamps=115 
New "Line.40354" phases=3 bus1=61431.1.2.3 bus2=61432.1.2.3 spacing=T10_0kV_3ph wires=(CU16mm2, CU16mm2, CU16mm2) length=0.096405 units=km normamps=115 
New "Line.40355" phases=3 bus1=61432.1.2.3 bus2=61433.1.2.3 spacing=T10_0kV_3ph wires=(CU16mm2, CU16mm2, CU16mm2) length=0.096009 units=km normamps=115 
New "Line.40356" phases=3 bus1=61433.1.2.3 bus2=61434.1.2.3 spacing=T10_0kV_3ph wires=(CU16mm2, CU16mm2, CU16mm2) length=0.098622 units=km normamps=115 
New "Line.40357" phases=3 bus1=61434.1.2.3 bus2=61435.1.2.3 spacing=T10_0kV_3ph wires=(CU16mm2, CU16mm2, CU16mm2) length=0.102548 units=km normamps=115 
New "Line.40358" phases=3 bus1=61435.1.2.3 bus2=61436.1.2.3 spacing=T10_0kV_3ph wires=(CU16mm2, CU16mm2, CU16mm2) length=0.098706 units=km normamps=115 
New "Line.40359" phases=3 bus1=61439.1.2.3 bus2=61440.1.2.3 spacing=T10_0kV_3ph wires=(CU16mm2, CU16mm2, CU16mm2) length=0.073082 units=km normamps=115 
New "Line.40360" phases=3 bus1=61440.1.2.3 bus2=61441.1.2.3 spacing=T10_0kV_3ph wires=(CU16mm2, CU16mm2, CU16mm2) length=0.101006 units=km normamps=115 
New "Line.40361" phases=3 bus1=61441.1.2.3 bus2=61442.1.2.3 spacing=T10_0kV_3ph wires=(CU16mm2, CU16mm2, CU16mm2) length=0.075363 units=km normamps=115 
New "Line.40362" phases=3 bus1=61444.1.2.3 bus2=61445.1.2.3 spacing=T10_0kV_3ph wires=(CU16mm2, CU16mm2, CU16mm2) length=0.099004 units=km normamps=115 
New "Line.40363" phases=3 bus1=61445.1.2.3 bus2=61446.1.2.3 spacing=T10_0kV_3ph wires=(CU16mm2, CU16mm2, CU16mm2) length=0.071797 units=km normamps=115 
New "Line.40364" phases=3 bus1=61446.1.2.3 bus2=61447.1.2.3 spacing=T10_0kV_3ph wires=(CU16mm2, CU16mm2, CU16mm2) length=0.089987 units=km normamps=115 
New "Line.40365" phases=3 bus1=61447.1.2.3 bus2=61448.1.2.3 spacing=T10_0kV_3ph wires=(CU16mm2, CU16mm2, CU16mm2) length=0.057538 units=km normamps=115 
New "Line.40366" phases=3 bus1=61448.1.2.3 bus2=61449.1.2.3 spacing=T10_0kV_3ph wires=(CU16mm2, CU16mm2, CU16mm2) length=0.111492 units=km normamps=115 
New "Line.40367" phases=3 bus1=61449.1.2.3 bus2=61450.1.2.3 spacing=T10_0kV_3ph wires=(CU16mm2, CU16mm2, CU16mm2) length=0.101251 units=km normamps=115 
New "Line.40368" phases=3 bus1=61450.1.2.3 bus2=61451.1.2.3 spacing=T10_0kV_3ph wires=(CU16mm2, CU16mm2, CU16mm2) length=0.100451 units=km normamps=115 
New "Line.40369" phases=3 bus1=67373.1.2.3 bus2=68112.1.2.3 spacing=T10_0kV_3ph wires=(CU16mm2, CU16mm2, CU16mm2) length=0.058464 units=km normamps=115 
New "Line.40370" phases=3 bus1=61452.1.2.3 bus2=66866.1.2.3 spacing=T10_0kV_3ph wires=(CU16mm2, CU16mm2, CU16mm2) length=0.034493 units=km normamps=115 
New "Line.40371" phases=3 bus1=61453.1.2.3 bus2=61454.1.2.3 spacing=T10_0kV_3ph wires=(CU16mm2, CU16mm2, CU16mm2) length=0.084842 units=km normamps=115 
New "Line.40372" phases=3 bus1=61454.1.2.3 bus2=61455.1.2.3 spacing=T10_0kV_3ph wires=(CU16mm2, CU16mm2, CU16mm2) length=0.095306 units=km normamps=115 
New "Line.40373" phases=3 bus1=61455.1.2.3 bus2=67373.1.2.3 spacing=T10_0kV_3ph wires=(CU16mm2, CU16mm2, CU16mm2) length=0.037683 units=km normamps=115 
New "Line.40374" phases=3 bus1=68113.1.2.3 bus2=68114.1.2.3 spacing=T10_0kV_3ph wires=(CU16mm2, CU16mm2, CU16mm2) length=0.050482 units=km normamps=115 
New "Line.40375" phases=3 bus1=68114.1.2.3 bus2=68115.1.2.3 spacing=T10_0kV_3ph wires=(CU16mm2, CU16mm2, CU16mm2) length=0.074125 units=km normamps=115 
New "Line.40376" phases=3 bus1=68115.1.2.3 bus2=68116.1.2.3 spacing=T10_0kV_3ph wires=(CU16mm2, CU16mm2, CU16mm2) length=0.076379 units=km normamps=115 
New "Line.40377" phases=3 bus1=punto855.1.2.3 bus2=68116.1.2.3 spacing=T10_0kV_3ph wires=(CU16mm2, CU16mm2, CU16mm2) length=0.075783 units=km normamps=115 
New "Line.40378" phases=3 bus1=punto855.1.2.3 bus2=61459.1.2.3 spacing=T10_0kV_3ph wires=(CU16mm2, CU16mm2, CU16mm2) length=0.070508 units=km normamps=115 
New "Line.40379" phases=3 bus1=61459.1.2.3 bus2=68118.1.2.3 spacing=T10_0kV_3ph wires=(CU16mm2, CU16mm2, CU16mm2) length=0.052157 units=km normamps=115 
New "Line.40380" phases=3 bus1=68118.1.2.3 bus2=68119.1.2.3 spacing=T10_0kV_3ph wires=(CU16mm2, CU16mm2, CU16mm2) length=0.083581 units=km normamps=115 
New "Line.40381" phases=3 bus1=68119.1.2.3 bus2=68120.1.2.3 spacing=T10_0kV_3ph wires=(CU16mm2, CU16mm2, CU16mm2) length=0.066388 units=km normamps=115 
New "Line.40382" phases=3 bus1=61462.1.2.3 bus2=61463.1.2.3 spacing=T10_0kV_3ph wires=(CU16mm2, CU16mm2, CU16mm2) length=0.066694 units=km normamps=115 
New "Line.40383" phases=3 bus1=61463.1.2.3 bus2=104.1.2.3 spacing=T10_0kV_3ph wires=(CU16mm2, CU16mm2, CU16mm2) length=0.076399 units=km normamps=115 
New "Line.40384" phases=3 bus1=61465.1.2.3 bus2=61466.1.2.3 spacing=T10_0kV_3ph wires=(CU16mm2, CU16mm2, CU16mm2) length=0.110196 units=km normamps=115 
New "Line.40385" phases=3 bus1=61466.1.2.3 bus2=61467.1.2.3 spacing=T10_0kV_3ph wires=(CU10mm2, CU10mm2, CU10mm2) length=0.110653 units=km normamps=83 
New "Line.40386" phases=3 bus1=61467.1.2.3 bus2=61468.1.2.3 spacing=T10_0kV_3ph wires=(CU10mm2, CU10mm2, CU10mm2) length=0.110796 units=km normamps=83 
New "Line.40387" phases=3 bus1=61468.1.2.3 bus2=61469.1.2.3 spacing=T10_0kV_3ph wires=(CU10mm2, CU10mm2, CU10mm2) length=0.100409 units=km normamps=83 
New "Line.40388" phases=3 bus1=61469.1.2.3 bus2=61473.1.2.3 spacing=T10_0kV_3ph wires=(CU10mm2, CU10mm2, CU10mm2) length=0.100994 units=km normamps=83 
New "Line.40389" phases=3 bus1=61473.1.2.3 bus2=61474.1.2.3 spacing=T10_0kV_3ph wires=(CU10mm2, CU10mm2, CU10mm2) length=0.035805 units=km normamps=83 
New "Line.40390" phases=3 bus1=61477.1.2.3 bus2=61478.1.2.3 spacing=T10_0kV_3ph wires=(CU10mm2, CU10mm2, CU10mm2) length=0.052102 units=km normamps=83 
New "Line.40391" phases=3 bus1=61478.1.2.3 bus2=108.1.2.3 spacing=T10_0kV_3ph wires=(CU10mm2, CU10mm2, CU10mm2) length=0.065107 units=km normamps=83 
New "Line.40392" phases=3 bus1=61568.1.2.3 bus2=61569.1.2.3 spacing=T10_0kV_3ph wires=(AL25mm2, AL25mm2, AL25mm2) length=0.045101 units=km normamps=117 
New "Line.40393" phases=3 bus1=61569.1.2.3 bus2=110.1.2.3 spacing=T10_0kV_3ph wires=(AL25mm2, AL25mm2, AL25mm2) length=0.044494 units=km normamps=117 
New "Line.40395" phases=3 bus1=61309.1.2.3 bus2=61310.1.2.3 spacing=T10_0kV_3ph wires=(CU16mm2, CU16mm2, CU16mm2) length=0.10519 units=km normamps=115 
New "Line.40396" phases=3 bus1=61310.1.2.3 bus2=61311.1.2.3 spacing=T10_0kV_3ph wires=(CU16mm2, CU16mm2, CU16mm2) length=0.090399 units=km normamps=115 
New "Line.40397" phases=3 bus1=61311.1.2.3 bus2=61312.1.2.3 spacing=T10_0kV_3ph wires=(CU16mm2, CU16mm2, CU16mm2) length=0.113128 units=km normamps=115 
New "Line.40398" phases=3 bus1=61312.1.2.3 bus2=61313.1.2.3 spacing=T10_0kV_3ph wires=(CU16mm2, CU16mm2, CU16mm2) length=0.102156 units=km normamps=115 
New "Line.40399" phases=3 bus1=61313.1.2.3 bus2=61314.1.2.3 spacing=T10_0kV_3ph wires=(CU16mm2, CU16mm2, CU16mm2) length=0.103811 units=km normamps=115 
New "Line.40400" phases=3 bus1=61314.1.2.3 bus2=61315.1.2.3 spacing=T10_0kV_3ph wires=(CU16mm2, CU16mm2, CU16mm2) length=0.091612 units=km normamps=115 
New "Line.40402" phases=3 bus1=61316.1.2.3 bus2=61317.1.2.3 spacing=T10_0kV_3ph wires=(CU16mm2, CU16mm2, CU16mm2) length=0.073054 units=km normamps=115 
New "Line.40405" phases=3 bus1=61319.1.2.3 bus2=61320.1.2.3 spacing=T10_0kV_3ph wires=(CU16mm2, CU16mm2, CU16mm2) length=0.089986 units=km normamps=115 
New "Line.40406" phases=3 bus1=61320.1.2.3 bus2=61321.1.2.3 spacing=T10_0kV_3ph wires=(CU16mm2, CU16mm2, CU16mm2) length=0.100668 units=km normamps=115 
New "Line.40407" phases=3 bus1=61321.1.2.3 bus2=61322.1.2.3 spacing=T10_0kV_3ph wires=(CU16mm2, CU16mm2, CU16mm2) length=0.104542 units=km normamps=115 
New "Line.40408" phases=3 bus1=61322.1.2.3 bus2=61323.1.2.3 spacing=T10_0kV_3ph wires=(CU16mm2, CU16mm2, CU16mm2) length=0.083036 units=km normamps=115 
New "Line.40409" phases=3 bus1=61323.1.2.3 bus2=61324.1.2.3 spacing=T10_0kV_3ph wires=(CU16mm2, CU16mm2, CU16mm2) length=0.076395 units=km normamps=115 
New "Line.40410" phases=3 bus1=61479.1.2.3 bus2=61480.1.2.3 spacing=T10_0kV_3ph wires=(CU16mm2, CU16mm2, CU16mm2) length=0.08679 units=km normamps=115 
New "Line.40411" phases=3 bus1=punto896.1.2.3 bus2=61481.1.2.3 spacing=T10_0kV_3ph wires=(CU16mm2, CU16mm2, CU16mm2) length=0.070438 units=km normamps=115 
New "Line.40412" phases=3 bus1=61481.1.2.3 bus2=60696.1.2.3 spacing=T10_0kV_3ph wires=(CU16mm2, CU16mm2, CU16mm2) length=0.12191 units=km normamps=115 
New "Line.40413" phases=3 bus1=60696.1.2.3 bus2=63657.1.2.3 spacing=T10_0kV_3ph wires=(CU16mm2, CU16mm2, CU16mm2) length=0.089239 units=km normamps=115 
New "Line.40414" phases=3 bus1=63657.1.2.3 bus2=61484.1.2.3 spacing=T10_0kV_3ph wires=(CU16mm2, CU16mm2, CU16mm2) length=0.10071 units=km normamps=115 
New "Line.40415" phases=3 bus1=61484.1.2.3 bus2=61485.1.2.3 spacing=T10_0kV_3ph wires=(CU16mm2, CU16mm2, CU16mm2) length=0.10099 units=km normamps=115 
New "Line.40417" phases=3 bus1=61486.1.2.3 bus2=61487.1.2.3 spacing=T10_0kV_3ph wires=(CU16mm2, CU16mm2, CU16mm2) length=0.102206 units=km normamps=115 
New "Line.40418" phases=3 bus1=61487.1.2.3 bus2=61488.1.2.3 spacing=T10_0kV_3ph wires=(CU16mm2, CU16mm2, CU16mm2) length=0.072198 units=km normamps=115 
New "Line.40419" phases=3 bus1=61488.1.2.3 bus2=61489.1.2.3 spacing=T10_0kV_3ph wires=(CU16mm2, CU16mm2, CU16mm2) length=0.083011 units=km normamps=115 
New "Line.40420" phases=3 bus1=61489.1.2.3 bus2=61490.1.2.3 spacing=T10_0kV_3ph wires=(CU16mm2, CU16mm2, CU16mm2) length=0.100795 units=km normamps=115 
New "Line.40421" phases=3 bus1=61490.1.2.3 bus2=61491.1.2.3 spacing=T10_0kV_3ph wires=(CU16mm2, CU16mm2, CU16mm2) length=0.100206 units=km normamps=115 
New "Line.40422" phases=3 bus1=61502.1.2.3 bus2=61503.1.2.3 spacing=T10_0kV_3ph wires=(CU16mm2, CU16mm2, CU16mm2) length=0.101005 units=km normamps=115 
New "Line.40423" phases=3 bus1=61505.1.2.3 bus2=61506.1.2.3 spacing=T10_0kV_3ph wires=(CU16mm2, CU16mm2, CU16mm2) length=0.120196 units=km normamps=115 
New "Line.40424" phases=3 bus1=61506.1.2.3 bus2=61507.1.2.3 spacing=T10_0kV_3ph wires=(CU16mm2, CU16mm2, CU16mm2) length=0.1109 units=km normamps=115 
New "Line.40425" phases=3 bus1=61507.1.2.3 bus2=61508.1.2.3 spacing=T10_0kV_3ph wires=(CU16mm2, CU16mm2, CU16mm2) length=0.111053 units=km normamps=115 
New "Line.40426" phases=3 bus1=61508.1.2.3 bus2=64947.1.2.3 spacing=T10_0kV_3ph wires=(CU16mm2, CU16mm2, CU16mm2) length=0.110057 units=km normamps=115 
New "Line.40427" phases=3 bus1=64947.1.2.3 bus2=61509.1.2.3 spacing=T10_0kV_3ph wires=(CU16mm2, CU16mm2, CU16mm2) length=0.097592 units=km normamps=115 
New "Line.40428" phases=3 bus1=61509.1.2.3 bus2=61510.1.2.3 spacing=T10_0kV_3ph wires=(CU16mm2, CU16mm2, CU16mm2) length=0.111495 units=km normamps=115 
New "Line.40429" phases=3 bus1=61511.1.2.3 bus2=61515.1.2.3 spacing=T10_0kV_3ph wires=(CU10mm2, CU10mm2, CU10mm2) length=0.079799 units=km normamps=83 
New "Line.40430" phases=3 bus1=61515.1.2.3 bus2=61516.1.2.3 spacing=T10_0kV_3ph wires=(CU16mm2, CU16mm2, CU16mm2) length=0.096389 units=km normamps=115 
New "Line.40431" phases=3 bus1=61516.1.2.3 bus2=61517.1.2.3 spacing=T10_0kV_3ph wires=(CU10mm2, CU10mm2, CU10mm2) length=0.100429 units=km normamps=83 
New "Line.40432" phases=3 bus1=61528.1.2.3 bus2=117.1.2.3 spacing=T10_0kV_3ph wires=(CU10mm2, CU10mm2, CU10mm2) length=0.018655 units=km normamps=83 
New "Line.40433" phases=3 bus1=60278.1.2.3 bus2=60277.1.2.3 spacing=T10_0kV_3ph wires=(AL25mm2, AL25mm2, AL25mm2) length=0.071763 units=km normamps=117 
New "Line.40434" phases=3 bus1=261.1.2.3 bus2=60278.1.2.3 spacing=T10_0kV_3ph wires=(AL25mm2, AL25mm2, AL25mm2) length=0.019723 units=km normamps=117 
New "Line.40435" phases=3 bus1=60279.1.2.3 bus2=61551.1.2.3 spacing=T10_0kV_3ph wires=(CU10mm2, CU10mm2, CU10mm2) length=0.067399 units=km normamps=83 
New "Line.40436" phases=3 bus1=60280.1.2.3 bus2=60279.1.2.3 spacing=T10_0kV_3ph wires=(CU10mm2, CU10mm2, CU10mm2) length=0.111186 units=km normamps=83 
New "Line.40438" phases=3 bus1=60281.1.2.3 bus2=60282.1.2.3 spacing=T10_0kV_3ph wires=(CU10mm2, CU10mm2, CU10mm2) length=0.10888 units=km normamps=83 
New "Line.40439" phases=3 bus1=60282.1.2.3 bus2=60283.1.2.3 spacing=T10_0kV_3ph wires=(CU10mm2, CU10mm2, CU10mm2) length=0.11531 units=km normamps=83 
New "Line.40440" phases=3 bus1=60283.1.2.3 bus2=60284.1.2.3 spacing=T10_0kV_3ph wires=(CU10mm2, CU10mm2, CU10mm2) length=0.114707 units=km normamps=83 
New "Line.40441" phases=3 bus1=60284.1.2.3 bus2=60285.1.2.3 spacing=T10_0kV_3ph wires=(CU10mm2, CU10mm2, CU10mm2) length=0.116738 units=km normamps=83 
New "Line.40442" phases=3 bus1=60285.1.2.3 bus2=60286.1.2.3 spacing=T10_0kV_3ph wires=(CU10mm2, CU10mm2, CU10mm2) length=0.11295 units=km normamps=83 
New "Line.40443" phases=3 bus1=60286.1.2.3 bus2=60287.1.2.3 spacing=T10_0kV_3ph wires=(CU10mm2, CU10mm2, CU10mm2) length=0.130928 units=km normamps=83 
New "Line.40444" phases=3 bus1=60287.1.2.3 bus2=60288.1.2.3 spacing=T10_0kV_3ph wires=(CU10mm2, CU10mm2, CU10mm2) length=0.156673 units=km normamps=83 
New "Line.40445" phases=3 bus1=60289.1.2.3 bus2=262.1.2.3 spacing=T10_0kV_3ph wires=(CU10mm2, CU10mm2, CU10mm2) length=0.077443 units=km normamps=83 
New "Line.40446" phases=3 bus1=262.1.2.3 bus2=60290.1.2.3 spacing=T10_0kV_3ph wires=(CU10mm2, CU10mm2, CU10mm2) length=0.067797 units=km normamps=83 
New "Line.40447" phases=3 bus1=60290.1.2.3 bus2=60291.1.2.3 spacing=T10_0kV_3ph wires=(CU10mm2, CU10mm2, CU10mm2) length=0.090188 units=km normamps=83 
New "Line.40448" phases=3 bus1=60291.1.2.3 bus2=60292.1.2.3 spacing=T10_0kV_3ph wires=(CU10mm2, CU10mm2, CU10mm2) length=0.110519 units=km normamps=83 
New "Line.40449" phases=3 bus1=60292.1.2.3 bus2=60293.1.2.3 spacing=T10_0kV_3ph wires=(CU10mm2, CU10mm2, CU10mm2) length=0.118964 units=km normamps=83 
New "Line.40450" phases=3 bus1=60293.1.2.3 bus2=60455.1.2.3 spacing=T10_0kV_3ph wires=(CU10mm2, CU10mm2, CU10mm2) length=0.097148 units=km normamps=83 
New "Line.40451" phases=3 bus1=60455.1.2.3 bus2=263.1.2.3 spacing=T10_0kV_3ph wires=(CU10mm2, CU10mm2, CU10mm2) length=0.104893 units=km normamps=83 
New "Line.40611" phases=3 bus1=60608.1.2.3 bus2=60527.1.2.3 spacing=T10_0kV_3ph wires=(AL150mm2, AL150mm2, AL150mm2) length=0.04536 units=km normamps=393 
New "Line.40613" phases=3 bus1=60527.1.2.3 bus2=60478.1.2.3 spacing=T10_0kV_3ph wires=(AL150mm2, AL150mm2, AL150mm2) length=0.077985 units=km normamps=393 
New "Line.40625" phases=3 bus1=60510.1.2.3 bus2=60522.1.2.3 spacing=T10_0kV_3ph wires=(AL150mm2, AL150mm2, AL150mm2) length=0.01836 units=km normamps=393 
New "Line.40626" phases=3 bus1=60511.1.2.3 bus2=60510.1.2.3 spacing=T10_0kV_3ph wires=(AL150mm2, AL150mm2, AL150mm2) length=0.005419 units=km normamps=393 
New "Line.40627" phases=3 bus1=60512.1.2.3 bus2=60511.1.2.3 spacing=T10_0kV_3ph wires=(AL150mm2, AL150mm2, AL150mm2) length=0.047604 units=km normamps=393 
New "Line.40628" phases=3 bus1=60470.1.2.3 bus2=60512.1.2.3 spacing=T10_0kV_3ph wires=(AL150mm2, AL150mm2, AL150mm2) length=0.045728 units=km normamps=393 
New "Line.40629" phases=3 bus1=60470.1.2.3 bus2=60422.1.2.3 spacing=T10_0kV_3ph wires=(AL150mm2, AL150mm2, AL150mm2) length=0.045999 units=km normamps=393 
New "Line.40630" phases=3 bus1=60422.1.2.3 bus2=60451.1.2.3 spacing=T10_0kV_3ph wires=(AL150mm2, AL150mm2, AL150mm2) length=0.02759 units=km normamps=393 
New "Line.40631" phases=3 bus1=60451.1.2.3 bus2=60416.1.2.3 spacing=T10_0kV_3ph wires=(AL150mm2, AL150mm2, AL150mm2) length=0.026102 units=km normamps=393 
New "Line.40632" phases=3 bus1=60416.1.2.3 bus2=60452.1.2.3 spacing=T10_0kV_3ph wires=(AL150mm2, AL150mm2, AL150mm2) length=0.025902 units=km normamps=393 
New "Line.40633" phases=3 bus1=60452.1.2.3 bus2=60437.1.2.3 spacing=T10_0kV_3ph wires=(AL150mm2, AL150mm2, AL150mm2) length=0.026096 units=km normamps=393 
New "Line.40634" phases=3 bus1=60437.1.2.3 bus2=60532.1.2.3 spacing=T10_0kV_3ph wires=(AL150mm2, AL150mm2, AL150mm2) length=0.043208 units=km normamps=393 
New "Line.40635" phases=3 bus1=60532.1.2.3 bus2=60533.1.2.3 spacing=T10_0kV_3ph wires=(AL150mm2, AL150mm2, AL150mm2) length=0.017394 units=km normamps=393 
New "Line.40636" phases=3 bus1=60533.1.2.3 bus2=60460.1.2.3 spacing=T10_0kV_3ph wires=(AL150mm2, AL150mm2, AL150mm2) length=0.045875 units=km normamps=393 
New "Line.40637" phases=3 bus1=60460.1.2.3 bus2=60431.1.2.3 spacing=T10_0kV_3ph wires=(AL150mm2, AL150mm2, AL150mm2) length=0.029053 units=km normamps=393 
New "Line.40638" phases=3 bus1=60431.1.2.3 bus2=60417.1.2.3 spacing=T10_0kV_3ph wires=(AL150mm2, AL150mm2, AL150mm2) length=0.0265 units=km normamps=393 
New "Line.40639" phases=3 bus1=60417.1.2.3 bus2=60414.1.2.3 spacing=T10_0kV_3ph wires=(AL150mm2, AL150mm2, AL150mm2) length=0.023479 units=km normamps=393 
New "Line.40640" phases=3 bus1=60423.1.2.3 bus2=60414.1.2.3 spacing=T10_0kV_3ph wires=(AL150mm2, AL150mm2, AL150mm2) length=0.025193 units=km normamps=393 
New "Line.40641" phases=3 bus1=60424.1.2.3 bus2=60423.1.2.3 spacing=T10_0kV_3ph wires=(AL150mm2, AL150mm2, AL150mm2) length=0.024657 units=km normamps=393 
New "Line.40642" phases=3 bus1=60432.1.2.3 bus2=60424.1.2.3 spacing=T10_0kV_3ph wires=(AL150mm2, AL150mm2, AL150mm2) length=0.022382 units=km normamps=393 
New "Line.40643" phases=3 bus1=60464.1.2.3 bus2=60432.1.2.3 spacing=T10_0kV_3ph wires=(AL150mm2, AL150mm2, AL150mm2) length=0.033722 units=km normamps=393 
New "Line.40644" phases=3 bus1=60444.1.2.3 bus2=60464.1.2.3 spacing=T10_0kV_3ph wires=(AL150mm2, AL150mm2, AL150mm2) length=0.028855 units=km normamps=393 
New "Line.40645" phases=3 bus1=60425.1.2.3 bus2=60444.1.2.3 spacing=T10_0kV_3ph wires=(AL150mm2, AL150mm2, AL150mm2) length=0.031498 units=km normamps=393 
New "Line.40646" phases=3 bus1=60471.1.2.3 bus2=60425.1.2.3 spacing=T10_0kV_3ph wires=(AL150mm2, AL150mm2, AL150mm2) length=0.012507 units=km normamps=393 
New "Line.40647" phases=3 bus1=60471.1.2.3 bus2=60415.1.2.3 spacing=T10_0kV_3ph wires=(AL150mm2, AL150mm2, AL150mm2) length=0.051207 units=km normamps=393 
New "Line.40648" phases=3 bus1=60415.1.2.3 bus2=60534.1.2.3 spacing=T10_0kV_3ph wires=(AL150mm2, AL150mm2, AL150mm2) length=0.022991 units=km normamps=393 
New "Line.40649" phases=3 bus1=60534.1.2.3 bus2=60445.1.2.3 spacing=T10_0kV_3ph wires=(AL150mm2, AL150mm2, AL150mm2) length=0.017005 units=km normamps=393 
New "Line.40650" phases=3 bus1=60445.1.2.3 bus2=60484.1.2.3 spacing=T10_0kV_3ph wires=(AL150mm2, AL150mm2, AL150mm2) length=0.039786 units=km normamps=393 
New "Line.40651" phases=3 bus1=60484.1.2.3 bus2=60465.1.2.3 spacing=T10_0kV_3ph wires=(AL150mm2, AL150mm2, AL150mm2) length=0.038617 units=km normamps=393 
New "Line.40652" phases=3 bus1=60465.1.2.3 bus2=60433.1.2.3 spacing=T10_0kV_3ph wires=(AL150mm2, AL150mm2, AL150mm2) length=0.037187 units=km normamps=393 
New "Line.40653" phases=3 bus1=60433.1.2.3 bus2=60438.1.2.3 spacing=T10_0kV_3ph wires=(AL150mm2, AL150mm2, AL150mm2) length=0.049999 units=km normamps=393 
New "Line.40654" phases=3 bus1=60446.1.2.3 bus2=60523.1.2.3 spacing=T10_0kV_3ph wires=(AL150mm2, AL150mm2, AL150mm2) length=0.04737 units=km normamps=393 
New "Line.40655" phases=3 bus1=60523.1.2.3 bus2=60486.1.2.3 spacing=T10_0kV_3ph wires=(AL150mm2, AL150mm2, AL150mm2) length=0.014088 units=km normamps=393 
New "Line.40656" phases=3 bus1=60486.1.2.3 bus2=60426.1.2.3 spacing=T10_0kV_3ph wires=(AL150mm2, AL150mm2, AL150mm2) length=0.037474 units=km normamps=393 
New "Line.40657" phases=3 bus1=60426.1.2.3 bus2=60496.1.2.3 spacing=T10_0kV_3ph wires=(AL150mm2, AL150mm2, AL150mm2) length=0.041008 units=km normamps=393 
New "Line.40658" phases=3 bus1=60496.1.2.3 bus2=60434.1.2.3 spacing=T10_0kV_3ph wires=(AL150mm2, AL150mm2, AL150mm2) length=0.015791 units=km normamps=393 
New "Line.40659" phases=3 bus1=60434.1.2.3 bus2=60418.1.2.3 spacing=T10_0kV_3ph wires=(AL150mm2, AL150mm2, AL150mm2) length=0.018194 units=km normamps=393 
New "Line.40660" phases=3 bus1=60418.1.2.3 bus2=punto1191.1.2.3 spacing=T10_0kV_3ph wires=(AL150mm2, AL150mm2, AL150mm2) length=0.008985 units=km normamps=393 
New "Line.40661" phases=3 bus1=punto1191.1.2.3 bus2=60497.1.2.3 spacing=T10_0kV_3ph wires=(AL150mm2, AL150mm2, AL150mm2) length=0.045735 units=km normamps=393 
New "Line.40662" phases=3 bus1=60419.1.2.3 bus2=punto1191.1.2.3 spacing=T10_0kV_3ph wires=(AL150mm2, AL150mm2, AL150mm2) length=0.015268 units=km normamps=393 
New "Line.40663" phases=3 bus1=60497.1.2.3 bus2=60546.1.2.3 spacing=T10_0kV_3ph wires=(AL150mm2, AL150mm2, AL150mm2) length=0.064087 units=km normamps=393 
New "Line.40664" phases=3 bus1=60487.1.2.3 bus2=60535.1.2.3 spacing=T10_0kV_3ph wires=(AL150mm2, AL150mm2, AL150mm2) length=0.067596 units=km normamps=393 
New "Line.40665" phases=3 bus1=60535.1.2.3 bus2=60435.1.2.3 spacing=T10_0kV_3ph wires=(AL150mm2, AL150mm2, AL150mm2) length=0.024995 units=km normamps=393 
New "Line.40666" phases=3 bus1=60435.1.2.3 bus2=60524.1.2.3 spacing=T10_0kV_3ph wires=(AL150mm2, AL150mm2, AL150mm2) length=0.065802 units=km normamps=393 
New "Line.40667" phases=3 bus1=60524.1.2.3 bus2=60547.1.2.3 spacing=T10_0kV_3ph wires=(AL150mm2, AL150mm2, AL150mm2) length=0.062706 units=km normamps=393 
New "Line.40668" phases=3 bus1=60547.1.2.3 bus2=60498.1.2.3 spacing=T10_0kV_3ph wires=(AL150mm2, AL150mm2, AL150mm2) length=0.062492 units=km normamps=393 
New "Line.40669" phases=3 bus1=60498.1.2.3 bus2=60536.1.2.3 spacing=T10_0kV_3ph wires=(AL150mm2, AL150mm2, AL150mm2) length=0.062502 units=km normamps=393 
New "Line.40670" phases=3 bus1=60536.1.2.3 bus2=60453.1.2.3 spacing=T10_0kV_3ph wires=(AL150mm2, AL150mm2, AL150mm2) length=0.067998 units=km normamps=393 
New "Line.40671" phases=3 bus1=60453.1.2.3 bus2=60488.1.2.3 spacing=T10_0kV_3ph wires=(AL150mm2, AL150mm2, AL150mm2) length=0.049264 units=km normamps=393 
New "Line.40672" phases=3 bus1=60488.1.2.3 bus2=60548.1.2.3 spacing=T10_0kV_3ph wires=(AL150mm2, AL150mm2, AL150mm2) length=0.054039 units=km normamps=393 
New "Line.40673" phases=3 bus1=60548.1.2.3 bus2=61303.1.2.3 spacing=T10_0kV_3ph wires=(AL150mm2, AL150mm2, AL150mm2) length=0.050199 units=km normamps=393 
New "Line.40674" phases=3 bus1=60513.1.2.3 bus2=60472.1.2.3 spacing=T10_0kV_3ph wires=(AL150mm2, AL150mm2, AL150mm2) length=0.047984 units=km normamps=393 
New "Line.40675" phases=3 bus1=60472.1.2.3 bus2=68148.1.2.3 spacing=T10_0kV_3ph wires=(AL150mm2, AL150mm2, AL150mm2) length=0.04994 units=km normamps=393 
New "Line.40677" phases=3 bus1=60502.1.2.3 bus2=60567.1.2.3 spacing=T10_0kV_3ph wires=(AL150mm2, AL150mm2, AL150mm2) length=0.045397 units=km normamps=393 
New "Line.40678" phases=3 bus1=60600.1.2.3 bus2=60573.1.2.3 spacing=T10_0kV_3ph wires=(AL150mm2, AL150mm2, AL150mm2) length=0.058602 units=km normamps=393 
New "Line.40679" phases=3 bus1=60573.1.2.3 bus2=60652.1.2.3 spacing=T10_0kV_3ph wires=(AL150mm2, AL150mm2, AL150mm2) length=0.075118 units=km normamps=393 
New "Line.40680" phases=3 bus1=60652.1.2.3 bus2=60502.1.2.3 spacing=T10_0kV_3ph wires=(AL150mm2, AL150mm2, AL150mm2) length=0.03277 units=km normamps=393 
New "Line.40681" phases=3 bus1=60567.1.2.3 bus2=60617.1.2.3 spacing=T10_0kV_3ph wires=(AL150mm2, AL150mm2, AL150mm2) length=0.04326 units=km normamps=393 
New "Line.40682" phases=3 bus1=60521.1.2.3 bus2=60557.1.2.3 spacing=T10_0kV_3ph wires=(AL150mm2, AL150mm2, AL150mm2) length=0.060791 units=km normamps=393 
New "Line.40683" phases=3 bus1=60557.1.2.3 bus2=60599.1.2.3 spacing=T10_0kV_3ph wires=(AL150mm2, AL150mm2, AL150mm2) length=0.059692 units=km normamps=393 
New "Line.40684" phases=3 bus1=60599.1.2.3 bus2=68188.1.2.3 spacing=T10_0kV_3ph wires=(AL150mm2, AL150mm2, AL150mm2) length=0.058441 units=km normamps=393 
New "Line.40685" phases=3 bus1=60277.1.2.3 bus2=68190.1.2.3 spacing=T10_0kV_3ph wires=(AL25mm2, AL25mm2, AL25mm2) length=0.015336 units=km normamps=117 
New "Line.40686" phases=3 bus1=68190.1.2.3 bus2=68191.1.2.3 spacing=T10_0kV_3ph wires=(AL150mm2, AL150mm2, AL150mm2) length=0.057914 units=km normamps=393 
New "Line.40687" phases=3 bus1=68191.1.2.3 bus2=68192.1.2.3 spacing=T10_0kV_3ph wires=(AL150mm2, AL150mm2, AL150mm2) length=0.04538 units=km normamps=393 
New "Line.40688" phases=3 bus1=68192.1.2.3 bus2=60480.1.2.3 spacing=T10_0kV_3ph wires=(AL150mm2, AL150mm2, AL150mm2) length=0.059867 units=km normamps=393 
New "Line.40689" phases=3 bus1=60480.1.2.3 bus2=60590.1.2.3 spacing=T10_0kV_3ph wires=(AL150mm2, AL150mm2, AL150mm2) length=0.048362 units=km normamps=393 
New "Line.40690" phases=3 bus1=60590.1.2.3 bus2=68071.1.2.3 spacing=T10_0kV_3ph wires=(AL150mm2, AL150mm2, AL150mm2) length=0.030149 units=km normamps=393 
New "Line.40691" phases=3 bus1=punto6012.1.2.3 bus2=60671.1.2.3 spacing=T10_0kV_3ph wires=(AL150mm2, AL150mm2, AL150mm2) length=0.057037 units=km normamps=393 
New "Line.40692" phases=3 bus1=60671.1.2.3 bus2=60572.1.2.3 spacing=T10_0kV_3ph wires=(AL150mm2, AL150mm2, AL150mm2) length=0.059796 units=km normamps=393 
New "Line.40693" phases=3 bus1=60572.1.2.3 bus2=60649.1.2.3 spacing=T10_0kV_3ph wires=(AL150mm2, AL150mm2, AL150mm2) length=0.059412 units=km normamps=393 
New "Line.40694" phases=3 bus1=60649.1.2.3 bus2=60543.1.2.3 spacing=T10_0kV_3ph wires=(AL150mm2, AL150mm2, AL150mm2) length=0.04244 units=km normamps=393 
New "Line.40695" phases=3 bus1=60543.1.2.3 bus2=60635.1.2.3 spacing=T10_0kV_3ph wires=(AL150mm2, AL150mm2, AL150mm2) length=0.055336 units=km normamps=393 
New "Line.40696" phases=3 bus1=60635.1.2.3 bus2=60542.1.2.3 spacing=T10_0kV_3ph wires=(AL150mm2, AL150mm2, AL150mm2) length=0.059991 units=km normamps=393 
New "Line.40697" phases=3 bus1=60542.1.2.3 bus2=60598.1.2.3 spacing=T10_0kV_3ph wires=(AL150mm2, AL150mm2, AL150mm2) length=0.062334 units=km normamps=393 
New "Line.40698" phases=3 bus1=60598.1.2.3 bus2=punto1241.1.2.3 spacing=T10_0kV_3ph wires=(AL150mm2, AL150mm2, AL150mm2) length=0.003929 units=km normamps=393 
New "Line.40699" phases=3 bus1=punto1241.1.2.3 bus2=60479.1.2.3 spacing=T10_0kV_3ph wires=(AL150mm2, AL150mm2, AL150mm2) length=0.059163 units=km normamps=393 
...
